/*--------------------------------*- C++ -*----------------------------------*\
| =========                 |                                                 |
| \\      /  F ield         | OpenFOAM: The Open Source CFD Toolbox           |
|  \\    /   O peration     | Version:  2.4.0                                 |
|   \\  /    A nd           | Web:      www.OpenFOAM.org                      |
|    \\/     M anipulation  |                                                 |
\*---------------------------------------------------------------------------*/
FoamFile
{
    version     2.0;
    format      ascii;
    class       dictionary;
    location    "system";
    object      fvSolution;
}
// * * * * * * * * * * * * * * * * * * * * * * * * * * * * * * * * * * * * * //

solvers
{
    T
    {
        preconditioner  FDIC;
		solver          GAMG;
		mergeLevels		1;
		smoother 		GaussSeidel;
		agglomerator	faceAreaPair;
		nCellsInCoarsestLevel	2;
        nPreSweeps 		3;
		nPostSweeps		2;
		nFinestSweeps	2;
        tolerance       1e-10;
        relTol          0;
    }
}

SIMPLE
{
//    nNonOrthogonalCorrectors 2;
	consistent 	yes;	
	 residualControl
    {
        T               1e-9;
    }
}


// ************************************************************************* //
