/*--------------------------------*- C++ -*----------------------------------*\
| =========                 |                                                 |
| \\      /  F ield         | OpenFOAM: The Open Source CFD Toolbox           |
|  \\    /   O peration     | Version:  5.0                                   |
|   \\  /    A nd           | Web:      www.OpenFOAM.org                      |
|    \\/     M anipulation  |                                                 |
\*---------------------------------------------------------------------------*/
FoamFile
{
    version     2.0;
    format      binary;
    class       volScalarField;
    location    "0";
    object      T;
}
// * * * * * * * * * * * * * * * * * * * * * * * * * * * * * * * * * * * * * //

dimensions      [0 -3 0 0 1 0 0];

internalField   uniform 0.5;

boundaryField
{
    Top
    {
        type            fixedValue;
        value           uniform 1;
    }
    Bottom
    {
        type            fixedValue;
        value           uniform 0;
    }
    Left
    {
        type            zeroGradient;
    }
    Right
    {
        type            zeroGradient;
    }
    Back
    {
        type            zeroGradient;
    }
    Front
    {
        type            zeroGradient;
    }
    Interior
    {
        type            zeroGradient;
    }
}


// ************************************************************************* //
